.model nhv nmos
.model phv pmos
.model mrp1 r rsh=600
